Outputs/ieee300-voltage-perturbation.xiidm
<?xml version="1.0" encoding="UTF-8"?>
<iidm:network xmlns:iidm="http://www.powsybl.org/schema/iidm/1_12" xmlns:reft="http://www.powsybl.org/schema/iidm/ext/reference_terminals/1_0" xmlns:slt="http://www.powsybl.org/schema/iidm/ext/slack_terminal/1_5" id="ieee300cdf" caseDate="1991-05-13T00:00:00.000Z" forecastDistance="0" sourceFormat="IEEE-CDF" minimumValidationLevel="STEADY_STATE_HYPOTHESIS">
    <iidm:substation id="S1">
        <iidm:voltageLevel id="VL1" nominalV="115.0" topologyKind="BUS_BREAKER">
            <iidm:busBreakerTopology>
                <iidm:bus id="B1" name="1" v="118.01694805298584" angle="-0.5103412230818024"/>
                <iidm:bus id="B2" name="1" v="118.88073975244447" angle="1.3920735803858386"/>
            </iidm:busBreakerTopology>
            <iidm:load id="B1-L" loadType="UNDEFINED" p0="90.0" q0="49.0" bus="B1" connectableBus="B1" p="90.0" q="49.0"/>
            <iidm:load id="B2-L" loadType="UNDEFINED" p0="56.0" q0="15.0" bus="B2" connectableBus="B2" p="56.0" q="15.0"/>
        </iidm:voltageLevel>
        <iidm:voltageLevel id="VL3" nominalV="230.0" topologyKind="BUS_BREAKER">
            <iidm:busBreakerTopology>
                <iidm:bus id="B3" name="1" v="228.20147839854172" angle="0.1753901436677431"/>
            </iidm:busBreakerTopology>
            <iidm:load id="B3-L" loadType="UNDEFINED" p0="20.0" q0="0.0" bus="B3" connectableBus="B3" p="20.0" q="0.0"/>
        </iidm:voltageLevel>
        <iidm:voltageLevel id="VL4" nominalV="345.0" topologyKind="BUS_BREAKER">
            <iidm:busBreakerTopology>
                <iidm:bus id="B4" name="1" v="354.2154664526051" angle="-1.577107114638528"/>
            </iidm:busBreakerTopology>
        </iidm:voltageLevel>
        <iidm:voltageLevel id="VL7001" nominalV="13.8" topologyKind="BUS_BREAKER">
            <iidm:busBreakerTopology>
                <iidm:bus id="B7001" name="1" v="14.49966" angle="4.341825542328288"/>
                <iidm:bus id="B7002" name="1" v="14.49966" angle="6.14030493457337"/>
                <iidm:bus id="B7003" name="1" v="14.245740000000001" angle="7.328267187942344"/>
            </iidm:busBreakerTopology>
            <iidm:generator id="B7001-G" energySource="OTHER" minP="-9999.0" maxP="9999.0" voltageRegulatorOn="true" targetP="467.0" targetV="14.49966" targetQ="0.0" bus="B7001" connectableBus="B7001" p="-467.0" q="-151.40962023775603">
                <iidm:minMaxReactiveLimits minQ="-210.0" maxQ="210.0"/>
            </iidm:generator>
            <iidm:generator id="B7002-G" energySource="OTHER" minP="-9999.0" maxP="9999.0" voltageRegulatorOn="true" targetP="623.0" targetV="14.49966" targetQ="0.0" bus="B7002" connectableBus="B7002" p="-623.0" q="-104.87433322297674">
                <iidm:minMaxReactiveLimits minQ="-280.0" maxQ="280.0"/>
            </iidm:generator>
            <iidm:generator id="B7003-G" energySource="OTHER" minP="-9999.0" maxP="9999.0" voltageRegulatorOn="true" targetP="1210.0" targetV="14.245740000000001" targetQ="0.0" bus="B7003" connectableBus="B7003" p="-1210.0" q="-468.56386956694934">
                <iidm:minMaxReactiveLimits minQ="-420.0" maxQ="420.0"/>
            </iidm:generator>
        </iidm:voltageLevel>
        <iidm:twoWindingsTransformer id="T3-1-1" r="0.0" x="6.877" g="0.0" b="0.0" ratedU1="217.81" ratedU2="115.0" voltageLevelId1="VL3" bus1="B3" connectableBus1="B3" voltageLevelId2="VL1" bus2="B1" connectableBus2="B1" p1="24.745990911859202" q1="43.41560696303113" p2="-24.745990911859206" q2="-42.232595016089974">
            <iidm:ratioTapChanger regulating="true" lowTapPosition="0" tapPosition="0" targetDeadband="0.0" loadTapChangingCapabilities="true" regulationMode="VOLTAGE" regulationValue="118.26599999999999">
                <iidm:terminalRef id="T3-1-1" side="TWO"/>
                <iidm:step r="0.0" x="0.0" g="0.0" b="0.0" rho="1.0"/>
            </iidm:ratioTapChanger>
        </iidm:twoWindingsTransformer>
        <iidm:twoWindingsTransformer id="T7001-1-1" r="0.0" x="2.5828425" g="0.0" b="0.0" ratedU1="13.8" ratedU2="115.0" voltageLevelId1="VL7001" bus1="B7001" connectableBus1="B7001" voltageLevelId2="VL1" bus2="B1" connectableBus2="B1" p1="466.9999999999999" q1="151.40962023775603" p2="-466.9999999999999" q2="-108.77260245249252"/>
        <iidm:twoWindingsTransformer id="T3-2-1" r="0.0" x="6.877" g="0.0" b="0.0" ratedU1="219.88" ratedU2="115.0" voltageLevelId1="VL3" bus1="B3" connectableBus1="B3" voltageLevelId2="VL1" bus2="B2" connectableBus2="B2" p1="-43.80920415014151" q1="8.648141162462748" p2="43.80920415014152" q2="-7.685485337399417">
            <iidm:ratioTapChanger regulating="true" lowTapPosition="0" tapPosition="0" targetDeadband="0.0" loadTapChangingCapabilities="true" regulationMode="VOLTAGE" regulationValue="119.07100000000001">
                <iidm:terminalRef id="T3-2-1" side="TWO"/>
                <iidm:step r="0.0" x="0.0" g="0.0" b="0.0" rho="1.0"/>
            </iidm:ratioTapChanger>
        </iidm:twoWindingsTransformer>
        <iidm:twoWindingsTransformer id="T7002-2-1" r="0.13225" x="1.93085" g="0.0" b="0.0" ratedU1="13.8" ratedU2="115.0" voltageLevelId1="VL7001" bus1="B7002" connectableBus1="B7002" voltageLevelId2="VL1" bus2="B2" connectableBus2="B2" p1="623.0" q1="104.87433322297674" p2="-619.3846168952492" q2="-52.089739893614194"/>
        <iidm:twoWindingsTransformer id="T3-4-1" r="0.0" x="5.95125" g="0.0" b="0.0" ratedU1="223.32999999999998" ratedU2="345.0" voltageLevelId1="VL3" bus1="B3" connectableBus1="B3" voltageLevelId2="VL4" bus2="B4" connectableBus2="B4" p1="641.6774885430233" q1="-90.29446714816012" p2="-641.6774885430233" q2="110.40281083746142">
            <iidm:ratioTapChanger regulating="true" lowTapPosition="0" tapPosition="0" targetDeadband="0.0" loadTapChangingCapabilities="true" regulationMode="VOLTAGE" regulationValue="355.626">
                <iidm:terminalRef id="T3-4-1" side="TWO"/>
                <iidm:step r="0.0" x="0.0" g="0.0" b="0.0" rho="1.0"/>
            </iidm:ratioTapChanger>
        </iidm:twoWindingsTransformer>
        <iidm:twoWindingsTransformer id="T7003-3-1" r="0.0" x="5.57566" g="0.0" b="0.0" ratedU1="13.8" ratedU2="230.0" voltageLevelId1="VL7001" bus1="B7003" connectableBus1="B7003" voltageLevelId2="VL3" bus2="B3" connectableBus2="B3" p1="1210.0" q1="468.56386956694934" p2="-1209.9999999999998" q2="-302.03822914780153"/>
    </iidm:substation>
    <iidm:substation id="S5">
        <iidm:voltageLevel id="VL5" nominalV="115.0" topologyKind="BUS_BREAKER">
            <iidm:busBreakerTopology>
                <iidm:bus id="B5" name="1" v="116.90953118633769" angle="-1.7782378194626292"/>
                <iidm:bus id="B6" name="1" v="118.30967162834023" angle="0.6146715405841163"/>
            </iidm:busBreakerTopology>
            <iidm:load id="B5-L" loadType="UNDEFINED" p0="353.0" q0="130.0" bus="B5" connectableBus="B5" p="353.0" q="130.0"/>
            <iidm:load id="B6-L" loadType="UNDEFINED" p0="120.0" q0="41.0" bus="B6" connectableBus="B6" p="120.0" q="41.0"/>
        </iidm:voltageLevel>
        <iidm:voltageLevel id="VL7" nominalV="230.0" topologyKind="BUS_BREAKER">
            <iidm:busBreakerTopology>
                <iidm:bus id="B7" name="1" v="227.24938791554214" angle="-0.32311865763166225"/>
            </iidm:busBreakerTopology>
        </iidm:voltageLevel>
        <iidm:twoWindingsTransformer id="T7-5-1" r="0.0" x="5.15775" g="0.0" b="0.0" ratedU1="218.04" ratedU2="115.0" voltageLevelId1="VL7" bus1="B7" connectableBus1="B7" voltageLevelId2="VL5" bus2="B5" connectableBus2="B5" p1="68.98954186217719" q1="69.37654569246634" p2="-68.98954186217719" q2="-65.93966676585481">
            <iidm:ratioTapChanger regulating="true" lowTapPosition="0" tapPosition="0" targetDeadband="0.0" loadTapChangingCapabilities="true" regulationMode="VOLTAGE" regulationValue="117.19649999999999">
                <iidm:terminalRef id="T7-5-1" side="TWO"/>
                <iidm:step r="0.0" x="0.0" g="0.0" b="0.0" rho="1.0"/>
            </iidm:ratioTapChanger>
        </iidm:twoWindingsTransformer>
        <iidm:twoWindingsTransformer id="T7-6-1" r="0.0" x="5.15775" g="0.0" b="0.0" ratedU1="220.57" ratedU2="115.0" voltageLevelId1="VL7" bus1="B7" connectableBus1="B7" voltageLevelId2="VL5" bus2="B6" connectableBus2="B6" p1="-44.48132814957291" q1="4.333636726425303" p2="44.48132814957291" q2="-3.5997815772701744">
            <iidm:ratioTapChanger regulating="true" lowTapPosition="0" tapPosition="0" targetDeadband="0.0" loadTapChangingCapabilities="true" regulationMode="VOLTAGE" regulationValue="118.588">
                <iidm:terminalRef id="T7-6-1" side="TWO"/>
                <iidm:step r="0.0" x="0.0" g="0.0" b="0.0" rho="1.0"/>
            </iidm:ratioTapChanger>
        </iidm:twoWindingsTransformer>
    </iidm:substation>
    <iidm:substation id="S8">
        <iidm:voltageLevel id="VL8" nominalV="115.0" topologyKind="BUS_BREAKER">
            <iidm:busBreakerTopology>
                <iidm:bus id="B8" name="1" v="116.75950000000002" angle="-3.819321011707026"/>
            </iidm:busBreakerTopology>
            <iidm:generator id="B8-G" energySource="OTHER" minP="-9999.0" maxP="9999.0" voltageRegulatorOn="true" targetP="-5.0" targetV="116.75950000000002" targetQ="0.0" bus="B8" connectableBus="B8" p="5.0" q="-14.23242581983919">
                <iidm:minMaxReactiveLimits minQ="-10.0" maxQ="10.0"/>
            </iidm:generator>
            <iidm:load id="B8-L" loadType="UNDEFINED" p0="58.0" q0="14.0" bus="B8" connectableBus="B8" p="58.0" q="14.0"/>
        </iidm:voltageLevel>
    </iidm:substation>
    <iidm:substation id="S9">
        <iidm:voltageLevel id="VL9" nominalV="115.0" topologyKind="BUS_BREAKER">
            <iidm:busBreakerTopology>
                <iidm:bus id="B9" name="1" v="115.22389905683742" angle="-3.57432673577365"/>
            </iidm:busBreakerTopology>
            <iidm:load id="B9-L" loadType="UNDEFINED" p0="96.0" q0="43.0" bus="B9" connectableBus="B9" p="96.0" q="43.0"/>
        </iidm:voltageLevel>
    </iidm:substation>
    <iidm:substation id="S10">
        <iidm:voltageLevel id="VL10" nominalV="230.0" topologyKind="BUS_BREAKER">
            <iidm:busBreakerTopology>
                <iidm:bus id="B10" name="1" v="234.715" angle="-5.108625309753091"/>
                <iidm:bus id="B12" name="1" v="228.72068242323905" angle="-1.2663694391735445"/>
            </iidm:busBreakerTopology>
            <iidm:generator id="B10-G" energySource="OTHER" minP="-9999.0" maxP="9999.0" voltageRegulatorOn="true" targetP="-5.0" targetV="234.715" targetQ="0.0" bus="B10" connectableBus="B10" p="5.0" q="-26.175701017765018">
                <iidm:minMaxReactiveLimits minQ="-20.0" maxQ="20.0"/>
            </iidm:generator>
            <iidm:load id="B10-L" loadType="UNDEFINED" p0="148.0" q0="33.0" bus="B10" connectableBus="B10" p="148.0" q="33.0"/>
        </iidm:voltageLevel>
        <iidm:voltageLevel id="VL11" nominalV="115.0" topologyKind="BUS_BREAKER">
            <iidm:busBreakerTopology>
                <iidm:bus id="B11" name="1" v="115.60087418255048" angle="-3.926243789255984"/>
            </iidm:busBreakerTopology>
            <iidm:load id="B11-L" loadType="UNDEFINED" p0="83.0" q0="21.0" bus="B11" connectableBus="B11" p="83.0" q="21.0"/>
        </iidm:voltageLevel>
        <iidm:voltageLevel id="VL7011" nominalV="13.8" topologyKind="BUS_BREAKER">
            <iidm:busBreakerTopology>
                <iidm:bus id="B7011" name="1" v="14.0001" angle="-1.397274986166076"/>
                <iidm:bus id="B7012" name="1" v="14.49966" angle="5.111285703821762"/>
            </iidm:busBreakerTopology>
            <iidm:generator id="B7011-G" energySource="OTHER" minP="-9999.0" maxP="9999.0" voltageRegulatorOn="true" targetP="234.0" targetV="14.0001" targetQ="0.0" bus="B7011" connectableBus="B7011" p="-234.0" q="-54.09641172450613">
                <iidm:minMaxReactiveLimits minQ="-100.0" maxQ="100.0"/>
            </iidm:generator>
            <iidm:generator id="B7012-G" energySource="OTHER" minP="-9999.0" maxP="9999.0" voltageRegulatorOn="true" targetP="372.0" targetV="14.49966" targetQ="0.0" bus="B7012" connectableBus="B7012" p="-372.0" q="-210.1956056636555">
                <iidm:minMaxReactiveLimits minQ="-224.0" maxQ="224.0"/>
            </iidm:generator>
        </iidm:voltageLevel>
        <iidm:twoWindingsTransformer id="T10-11-1" r="0.0" x="11.770249999999999" g="0.0" b="0.0" ratedU1="240.58" ratedU2="115.0" voltageLevelId1="VL10" bus1="B10" connectableBus1="B10" voltageLevelId2="VL11" bus2="B11" connectableBus2="B11" p1="-22.738340803940396" q1="-32.216928118214426" p2="22.738340803940396" q2="33.67087086548511">
            <iidm:ratioTapChanger regulating="true" lowTapPosition="0" tapPosition="0" targetDeadband="0.0" loadTapChangingCapabilities="true" regulationMode="VOLTAGE" regulationValue="115.6555">
                <iidm:terminalRef id="T10-11-1" side="TWO"/>
                <iidm:step r="0.0" x="0.0" g="0.0" b="0.0" rho="1.0"/>
            </iidm:ratioTapChanger>
        </iidm:twoWindingsTransformer>
        <iidm:twoWindingsTransformer id="T12-10-1" r="0.0" x="28.037" g="0.0" b="0.0" ratedU1="226.54999999999998" ratedU2="230.0" voltageLevelId1="VL10" bus1="B12" connectableBus1="B12" voltageLevelId2="VL10" bus2="B10" connectableBus2="B10" p1="130.26165919605955" q1="-16.429072589424646" p2="-130.26165919605958" q2="25.392629135979444"/>
        <iidm:twoWindingsTransformer id="T7012-12-1" r="0.0" x="16.5048" g="0.0" b="0.0" ratedU1="13.8" ratedU2="230.0" voltageLevelId1="VL7011" bus1="B7012" connectableBus1="B7012" voltageLevelId2="VL10" bus2="B12" connectableBus2="B12" p1="371.99999999999994" q1="210.1956056636555" p2="-371.99999999999994" q2="-158.59943292195734"/>
        <iidm:twoWindingsTransformer id="T7011-11-1" r="0.0" x="2.5431675" g="0.0" b="0.0" ratedU1="13.8" ratedU2="115.0" voltageLevelId1="VL7011" bus1="B7011" connectableBus1="B7011" voltageLevelId2="VL11" bus2="B11" connectableBus2="B11" p1="233.99999999999994" q1="54.09641172450613" p2="-233.9999999999999" q2="-43.31889594993022"/>
    </iidm:substation>
    <iidm:substation id="S13">
        <iidm:voltageLevel id="VL13" nominalV="115.0" topologyKind="BUS_BREAKER">
            <iidm:busBreakerTopology>
                <iidm:bus id="B13" name="1" v="114.70527665475136" angle="-6.963254044530032"/>
            </iidm:busBreakerTopology>
            <iidm:load id="B13-L" loadType="UNDEFINED" p0="58.0" q0="10.0" bus="B13" connectableBus="B13" p="58.0" q="10.0"/>
        </iidm:voltageLevel>
    </iidm:substation>
    <iidm:substation id="S14">
        <iidm:voltageLevel id="VL14" nominalV="115.0" topologyKind="BUS_BREAKER">
            <iidm:busBreakerTopology>
                <iidm:bus id="B14" name="1" v="114.94883981755078" angle="-10.65649763363728"/>
            </iidm:busBreakerTopology>
            <iidm:load id="B14-L" loadType="UNDEFINED" p0="160.0" q0="60.0" bus="B14" connectableBus="B14" p="160.0" q="60.0"/>
        </iidm:voltageLevel>
    </iidm:substation>
    <iidm:substation id="S15">
        <iidm:voltageLevel id="VL15" nominalV="115.0" topologyKind="BUS_BREAKER">
            <iidm:busBreakerTopology>
                <iidm:bus id="B15" name="1" v="118.91665892307809" angle="-14.062020292905235"/>
                <iidm:bus id="B17" name="1" v="122.44921242384106" angle="-18.589526281449135"/>
            </iidm:busBreakerTopology>
            <iidm:load id="B15-L" loadType="UNDEFINED" p0="126.7" q0="23.0" bus="B15" connectableBus="B15" p="126.7" q="23.0"/>
            <iidm:load id="B17-L" loadType="UNDEFINED" p0="561.0" q0="220.0" bus="B17" connectableBus="B17" p="561.0" q="220.0"/>
        </iidm:voltageLevel>
        <iidm:voltageLevel id="VL16" nominalV="345.0" topologyKind="BUS_BREAKER">
            <iidm:busBreakerTopology>
                <iidm:bus id="B16" name="1" v="355.5672097253135" angle="-8.248896932116407"/>
            </iidm:busBreakerTopology>
        </iidm:voltageLevel>
        <iidm:voltageLevel id="VL7017" nominalV="13.8" topologyKind="BUS_BREAKER">
            <iidm:busBreakerTopology>
                <iidm:bus id="B7017" name="1" v="14.499660000000004" angle="-15.955384820809018"/>
            </iidm:busBreakerTopology>
            <iidm:generator id="B7017-G" energySource="OTHER" minP="-9999.0" maxP="9999.0" voltageRegulatorOn="true" targetP="330.0" targetV="14.49966" targetQ="0.0" bus="B7017" connectableBus="B7017" p="-330.0" q="-348.92847329349377">
                <iidm:minMaxReactiveLimits minQ="0.0" maxQ="350.0"/>
            </iidm:generator>
        </iidm:voltageLevel>
        <iidm:twoWindingsTransformer id="T15-17-1" r="2.56565" x="4.112975" g="0.0" b="0.0" ratedU1="109.9515" ratedU2="115.0" voltageLevelId1="VL15" bus1="B15" connectableBus1="B15" voltageLevelId2="VL15" bus2="B17" connectableBus2="B17" p1="241.7830563568339" q1="-80.9777722912294" p2="-231.0" q2="98.26401212099961">
            <iidm:ratioTapChanger regulating="true" lowTapPosition="0" tapPosition="0" targetDeadband="0.0" loadTapChangingCapabilities="true" regulationMode="VOLTAGE" regulationValue="122.4635">
                <iidm:terminalRef id="T15-17-1" side="TWO"/>
                <iidm:step r="0.0" x="0.0" g="0.0" b="0.0" rho="1.0"/>
            </iidm:ratioTapChanger>
        </iidm:twoWindingsTransformer>
        <iidm:twoWindingsTransformer id="T16-15-1" r="0.13225" x="5.0255" g="0.0" b="0.0" ratedU1="334.995" ratedU2="115.0" voltageLevelId1="VL16" bus1="B16" connectableBus1="B16" voltageLevelId2="VL15" bus2="B15" connectableBus2="B15" p1="294.737945355742" q1="83.49766646742654" p2="-293.9049703627042" q2="-51.84461673198675">
            <iidm:ratioTapChanger regulating="true" lowTapPosition="0" tapPosition="0" targetDeadband="0.0" loadTapChangingCapabilities="true" regulationMode="VOLTAGE" regulationValue="118.9445">
                <iidm:terminalRef id="T16-15-1" side="TWO"/>
                <iidm:step r="0.0" x="0.0" g="0.0" b="0.0" rho="1.0"/>
            </iidm:ratioTapChanger>
        </iidm:twoWindingsTransformer>
        <iidm:twoWindingsTransformer id="T7017-17-1" r="0.0" x="2.1874149999999997" g="0.0" b="0.0" ratedU1="12.9996" ratedU2="115.0" voltageLevelId1="VL7017" bus1="B7017" connectableBus1="B7017" voltageLevelId2="VL15" bus2="B17" connectableBus2="B17" p1="330.00000000000006" q1="348.92847329349377" p2="-330.00000000000006" q2="-318.2640121210016"/>
    </iidm:substation>
    <iidm:substation id="S19">
        <iidm:voltageLevel id="VL19" nominalV="230.0" topologyKind="BUS_BREAKER">
            <iidm:busBreakerTopology>
                <iidm:bus id="B19" name="1" v="225.51957882133817" angle="-5.2614134260285885"/>
            </iidm:busBreakerTopology>
        </iidm:voltageLevel>
    </iidm:substation>
    <iidm:substation id="S20">
        <iidm:voltageLevel id="VL20" nominalV="115.0" topologyKind="BUS_BREAKER">
            <iidm:busBreakerTopology>
                <iidm:bus id="B20" name="1" v="115.11499999999998" angle="-8.88934398297572"/>
            </iidm:busBreakerTopology>
            <iidm:generator id="B20-G" energySource="OTHER" minP="-9999.0" maxP="9999.0" voltageRegulatorOn="true" targetP="-10.0" targetV="115.11499999999998" targetQ="0.0" bus="B20" connectableBus="B20" p="10.0" q="-30.378084821103045">
                <iidm:minMaxReactiveLimits minQ="-20.0" maxQ="20.0"/>
            </iidm:generator>
            <iidm:load id="B20-L" loadType="UNDEFINED" p0="595.0" q0="120.0" bus="B20" connectableBus="B20" p="595.0" q="120.0"/>
        </iidm:voltageLevel>
        <iidm:voltageLevel id="VL21" nominalV="230.0" topologyKind="BUS_BREAKER">
            <iidm:busBreakerTopology>
                <iidm:bus id="B21" name="1" v="224.00833028735215" angle="-4.808336127552812"/>
            </iidm:busBreakerTopology>
            <iidm:load id="B21-L" loadType="UNDEFINED" p0="77.0" q0="1.0" bus="B21" connectableBus="B21" p="77.0" q="1.0"/>
        </iidm:voltageLevel>
        <iidm:twoWindingsTransformer id="T21-20-1" r="0.0" x="1.8515000000000001" g="0.0" b="0.0" ratedU1="218.95999999999998" ratedU2="115.0" voltageLevelId1="VL21" bus1="B21" connectableBus1="B21" voltageLevelId2="VL20" bus2="B20" connectableBus2="B20" p1="520.5745658795441" q1="179.7221046263101" p2="-520.5745658795441" q2="-139.152694857509"/>
    </iidm:substation>
    <iidm:substation id="S22">
        <iidm:voltageLevel id="VL22" nominalV="115.0" topologyKind="BUS_BREAKER">
            <iidm:busBreakerTopology>
                <iidm:bus id="B22" name="1" v="114.56789408131803" angle="-8.401925409593886"/>
            </iidm:busBreakerTopology>
            <iidm:load id="B22-L" loadType="UNDEFINED" p0="81.0" q0="23.0" bus="B22" connectableBus="B22" p="81.0" q="23.0"/>
        </iidm:voltageLevel>
    </iidm:substation>
    <iidm:substation id="S23">
        <iidm:voltageLevel id="VL23" nominalV="115.0" topologyKind="BUS_BREAKER">
            <iidm:busBreakerTopology>
                <iidm:bus id="B23" name="1" v="120.74802993730694" angle="-2.4884642951587814"/>
            </iidm:busBreakerTopology>
            <iidm:load id="B23-L" loadType="UNDEFINED" p0="21.0" q0="7.0" bus="B23" connectableBus="B23" p="21.0" q="7.0"/>
        </iidm:voltageLevel>
        <iidm:voltageLevel id="VL24" nominalV="230.0" topologyKind="BUS_BREAKER">
            <iidm:busBreakerTopology>
                <iidm:bus id="B24" name="1" v="231.193756533564" angle="-0.40642141728284686"/>
            </iidm:busBreakerTopology>
        </iidm:voltageLevel>
        <iidm:voltageLevel id="VL7023" nominalV="13.8" topologyKind="BUS_BREAKER">
            <iidm:busBreakerTopology>
                <iidm:bus id="B7023" name="1" v="14.49966" angle="-0.278073904859264"/>
                <iidm:bus id="B7024" name="1" v="14.200199999999999" angle="6.171598383596754"/>
            </iidm:busBreakerTopology>
            <iidm:generator id="B7023-G" energySource="OTHER" minP="-9999.0" maxP="9999.0" voltageRegulatorOn="true" targetP="185.0" targetV="14.49966" targetQ="0.0" bus="B7023" connectableBus="B7023" p="-185.0" q="-6.845003628824322">
                <iidm:minMaxReactiveLimits minQ="0.0" maxQ="120.0"/>
            </iidm:generator>
            <iidm:generator id="B7024-G" energySource="OTHER" minP="-9999.0" maxP="9999.0" voltageRegulatorOn="true" targetP="410.0" targetV="14.200199999999999" targetQ="0.0" bus="B7024" connectableBus="B7024" p="-409.99999999999994" q="-108.33745399417451">
                <iidm:minMaxReactiveLimits minQ="-224.0" maxQ="224.0"/>
            </iidm:generator>
        </iidm:voltageLevel>
        <iidm:twoWindingsTransformer id="T24-23-1" r="0.0" x="8.464" g="0.0" b="0.0" ratedU1="216.89" ratedU2="115.0" voltageLevelId1="VL24" bus1="B24" connectableBus1="B24" voltageLevelId2="VL23" bus2="B23" connectableBus2="B23" p1="63.53459485084135" q1="27.747425057496063" p2="-63.53459485084135" q2="-25.04009261001744">
            <iidm:ratioTapChanger regulating="true" lowTapPosition="0" tapPosition="0" targetDeadband="0.0" loadTapChangingCapabilities="true" regulationMode="VOLTAGE" regulationValue="120.7615">
                <iidm:terminalRef id="T24-23-1" side="TWO"/>
                <iidm:step r="0.0" x="0.0" g="0.0" b="0.0" rho="1.0"/>
            </iidm:ratioTapChanger>
        </iidm:twoWindingsTransformer>
        <iidm:twoWindingsTransformer id="T7023-23-1" r="0.0" x="3.04175" g="0.0" b="0.0" ratedU1="13.8" ratedU2="115.0" voltageLevelId1="VL7023" bus1="B7023" connectableBus1="B7023" voltageLevelId2="VL23" bus2="B23" connectableBus2="B23" p1="185.00000000000006" q1="6.845003628824322" p2="-185.00000000000003" q2="0.29515682707354746"/>
        <iidm:twoWindingsTransformer id="T7024-24-1" r="0.0" x="15.2881" g="0.0" b="0.0" ratedU1="13.8" ratedU2="230.0" voltageLevelId1="VL7023" bus1="B7024" connectableBus1="B7024" voltageLevelId2="VL24" bus2="B24" connectableBus2="B24" p1="410.00000000000006" q1="108.33745399417451" p2="-410.00000000000006" q2="-59.25275276135065"/>
    </iidm:substation>
    <iidm:substation id="S25">
        <iidm:voltageLevel id="VL25" nominalV="115.0" topologyKind="BUS_BREAKER">
            <iidm:busBreakerTopology>
                <iidm:bus id="B25" name="1" v="117.67330286961106" angle="-4.9878038187264355"/>
            </iidm:busBreakerTopology>
            <iidm:load id="B25-L" loadType="UNDEFINED" p0="45.0" q0="12.0" bus="B25" connectableBus="B25" p="45.0" q="12.0"/>
        </iidm:voltageLevel>
    </iidm:substation>
    <iidm:substation id="S26">
        <iidm:voltageLevel id="VL26" nominalV="115.0" topologyKind="BUS_BREAKER">
            <iidm:busBreakerTopology>
                <iidm:bus id="B26" name="1" v="114.82602386997074" angle="-8.162480284237482"/>
            </iidm:busBreakerTopology>
            <iidm:load id="B26-L" loadType="UNDEFINED" p0="28.0" q0="9.0" bus="B26" connectableBus="B26" p="28.0" q="9.0"/>
        </iidm:voltageLevel>
    </iidm:substation>
    <iidm:substation id="S27">
        <iidm:voltageLevel id="VL27" nominalV="115.0" topologyKind="BUS_BREAKER">
            <iidm:busBreakerTopology>
                <iidm:bus id="B27" name="1" v="112.12250751542729" angle="-11.324717971856812"/>
            </iidm:busBreakerTopology>
            <iidm:load id="B27-L" loadType="UNDEFINED" p0="69.0" q0="13.0" bus="B27" connectableBus="B27" p="69.0" q="13.0"/>
        </iidm:voltageLevel>
    </iidm:substation>
    <iidm:substation id="S33">
        <iidm:voltageLevel id="VL33" nominalV="115.0" topologyKind="BUS_BREAKER">
            <iidm:busBreakerTopology>
                <iidm:bus id="B33" name="1" v="117.39922666409015" angle="-16.223958527699974"/>
            </iidm:busBreakerTopology>
            <iidm:load id="B33-L" loadType="UNDEFINED" p0="55.0" q0="6.0" bus="B33" connectableBus="B33" p="55.0" q="6.0"/>
        </iidm:voltageLevel>
    </iidm:substation>
    <iidm:substation id="S34">
        <iidm:voltageLevel id="VL34" nominalV="345.0" topologyKind="BUS_BREAKER">
            <iidm:busBreakerTopology>
                <iidm:bus id="B34" name="1" v="358.96062755506244" angle="-12.727438838126506"/>
            </iidm:busBreakerTopology>
        </iidm:voltageLevel>
    </iidm:substation>
    <iidm:substation id="S35">
        <iidm:voltageLevel id="VL35" nominalV="115.0" topologyKind="BUS_BREAKER">
            <iidm:busBreakerTopology>
                <iidm:bus id="B35" name="1" v="112.19425670992445" angle="-30.71681104696868"/>
            </iidm:busBreakerTopology>
        </iidm:voltageLevel>
        <iidm:voltageLevel id="VL36" nominalV="230.0" topologyKind="BUS_BREAKER">
            <iidm:busBreakerTopology>
                <iidm:bus id="B36" name="1" v="230.2175066979033" angle="-27.58256253262463"/>
            </iidm:busBreakerTopology>
        </iidm:voltageLevel>
        <iidm:twoWindingsTransformer id="T36-35-1" r="0.0" x="6.21575" g="0.0" b="0.0" ratedU1="232.3" ratedU2="115.0" voltageLevelId1="VL36" bus1="B36" connectableBus1="B36" voltageLevelId2="VL35" bus2="B35" connectableBus2="B35" p1="112.4755797187324" q1="35.61914735567118" p2="-112.47557971873243" q2="-28.958098990817387">
            <iidm:ratioTapChanger regulating="true" lowTapPosition="0" tapPosition="0" targetDeadband="0.0" loadTapChangingCapabilities="true" regulationMode="VOLTAGE" regulationValue="112.2055">
                <iidm:terminalRef id="T36-35-1" side="TWO"/>
                <iidm:step r="0.0" x="0.0" g="0.0" b="0.0" rho="1.0"/>
            </iidm:ratioTapChanger>
        </iidm:twoWindingsTransformer>
    </iidm:substation>
    <iidm:substation id="S37">
        <iidm:voltageLevel id="VL37" nominalV="115.0" topologyKind="BUS_BREAKER">
            <iidm:busBreakerTopology>
                <iidm:bus id="B37" name="1" v="116.93064777605868" angle="-15.012623311540926"/>
                <iidm:bus id="B9001" name="1" v="115.97203510668027" angle="-15.032790543433446"/>
            </iidm:busBreakerTopology>
            <iidm:load id="B37-L" loadType="UNDEFINED" p0="85.0" q0="32.0" bus="B37" connectableBus="B37" p="85.0" q="32.0"/>
        </iidm:voltageLevel>
        <iidm:voltageLevel id="VL9006" nominalV="6.6" topologyKind="BUS_BREAKER">
            <iidm:busBreakerTopology>
                <iidm:bus id="B9006" name="1" v="6.604840195829547" angle="-21.015617606524117"/>
                <iidm:bus id="B9012" name="1" v="6.609380090586013" angle="-21.01699312649467"/>
            </iidm:busBreakerTopology>
        </iidm:voltageLevel>
        <iidm:twoWindingsTransformer id="T37-9001-1" r="0.007935" x="0.060835" g="0.0" b="0.0" ratedU1="115.943" ratedU2="115.0" voltageLevelId1="VL37" bus1="B37" connectableBus1="B37" voltageLevelId2="VL37" bus2="B9001" connectableBus2="B9001" p1="78.37571213769195" q1="4.2414290739931335" p2="-78.37207787239277" q2="-4.21356637342032">
            <iidm:ratioTapChanger regulating="false" lowTapPosition="0" tapPosition="0" loadTapChangingCapabilities="true">
                <iidm:step r="0.0" x="0.0" g="0.0" b="0.0" rho="1.0"/>
            </iidm:ratioTapChanger>
        </iidm:twoWindingsTransformer>
        <iidm:twoWindingsTransformer id="T9001-9006-1" r="0.010624283999999998" x="0.19027879199999997" g="0.0" b="0.0" ratedU1="111.182" ratedU2="6.6" voltageLevelId1="VL37" bus1="B9001" connectableBus1="B9001" voltageLevelId2="VL9006" bus2="B9006" connectableBus2="B9006" p1="25.46535998637226" q1="9.992365320488645" p2="-25.297607687480628" q2="-6.987955349113549">
            <iidm:ratioTapChanger regulating="true" lowTapPosition="0" tapPosition="0" targetDeadband="0.0" loadTapChangingCapabilities="true" regulationMode="VOLTAGE" regulationValue="6.619139999999999">
                <iidm:terminalRef id="T9001-9006-1" side="TWO"/>
                <iidm:step r="0.0" x="0.0" g="0.0" b="0.0" rho="1.0"/>
            </iidm:ratioTapChanger>
        </iidm:twoWindingsTransformer>
        <iidm:twoWindingsTransformer id="T9001-9012-1" r="0.015786144" x="0.28269568799999995" g="0.0" b="0.0" ratedU1="112.654" ratedU2="6.6" voltageLevelId1="VL37" bus1="B9001" connectableBus1="B9001" voltageLevelId2="VL9006" bus2="B9012" connectableBus2="B9012" p1="16.80521721149481" q1="4.373836605301261" p2="-16.702100724299243" q2="-2.5272433972389408">
            <iidm:ratioTapChanger regulating="true" lowTapPosition="0" tapPosition="0" targetDeadband="0.0" loadTapChangingCapabilities="true" regulationMode="VOLTAGE" regulationValue="6.61518">
                <iidm:terminalRef id="T9001-9012-1" side="TWO"/>
                <iidm:step r="0.0" x="0.0" g="0.0" b="0.0" rho="1.0"/>
            </iidm:ratioTapChanger>
        </iidm:twoWindingsTransformer>
    </iidm:substation>
    <iidm:substation id="S38">
        <iidm:voltageLevel id="VL38" nominalV="115.0" topologyKind="BUS_BREAKER">
            <iidm:busBreakerTopology>
                <iidm:bus id="B38" name="1" v="116.91124838556183" angle="-16.704623849528687"/>
            </iidm:busBreakerTopology>
            <iidm:load id="B38-L" loadType="UNDEFINED" p0="155.0" q0="18.0" bus="B38" connectableBus="B38" p="155.0" q="18.0"/>
        </iidm:voltageLevel>
    </iidm:substation>
    <iidm:substation id="S39">
        <iidm:voltageLevel id="VL39" nominalV="345.0" topologyKind="BUS_BREAKER">
            <iidm:busBreakerTopology>
                <iidm:bus id="B39" name="1" v="363.2347370131121" angle="-10.675788393135608"/>
            </iidm:busBreakerTopology>
        </iidm:voltageLevel>
        <iidm:voltageLevel id="VL7039" nominalV="20.0" topologyKind="BUS_BREAKER">
            <iidm:busBreakerTopology>
                <iidm:bus id="B7039" name="1" v="21.0" angle="-2.7508176204650097"/>
            </iidm:busBreakerTopology>
            <iidm:generator id="B7039-G" energySource="OTHER" minP="-9999.0" maxP="9999.0" voltageRegulatorOn="true" targetP="500.0" targetV="21.0" targetQ="0.0" bus="B7039" connectableBus="B7039" p="-500.0" q="-155.97546247734684">
                <iidm:minMaxReactiveLimits minQ="-200.0" maxQ="200.0"/>
            </iidm:generator>
        </iidm:voltageLevel>
        <iidm:twoWindingsTransformer id="T7039-39-1" r="0.0" x="37.5999975" g="0.0" b="0.0" ratedU1="19.3" ratedU2="345.0" voltageLevelId1="VL7039" bus1="B7039" connectableBus1="B7039" voltageLevelId2="VL39" bus2="B39" connectableBus2="B39" p1="499.9999999999999" q1="155.97546247734684" p2="-499.9999999999999" q2="-82.77794741271201"/>
    </iidm:substation>
    <iidm:substation id="S40">
        <iidm:voltageLevel id="VL40" nominalV="115.0" topologyKind="BUS_BREAKER">
            <iidm:busBreakerTopology>
                <iidm:bus id="B40" name="1" v="117.06445354661895" angle="-16.914617852045435"/>
            </iidm:busBreakerTopology>
            <iidm:load id="B40-L" loadType="UNDEFINED" p0="46.0" q0="-21.0" bus="B40" connectableBus="B40" p="46.0" q="-21.0"/>
        </iidm:voltageLevel>
    </iidm:substation>
    <iidm:substation id="S41">
        <iidm:voltageLevel id="VL41" nominalV="115.0" topologyKind="BUS_BREAKER">
            <iidm:busBreakerTopology>
                <iidm:bus id="B41" name="1" v="117.84034579301107" angle="-14.50198741525031"/>
            </iidm:busBreakerTopology>
            <iidm:load id="B41-L" loadType="UNDEFINED" p0="86.0" q0="0.0" bus="B41" connectableBus="B41" p="86.0" q="0.0"/>
        </iidm:voltageLevel>
    </iidm:substation>
    <iidm:substation id="S42">
        <iidm:voltageLevel id="VL42" nominalV="345.0" topologyKind="BUS_BREAKER">
            <iidm:busBreakerTopology>
                <iidm:bus id="B42" name="1" v="360.19282082033556" angle="-12.311089699544535"/>
            </iidm:busBreakerTopology>
        </iidm:voltageLevel>
    </iidm:substation>
    <iidm:substation id="S43">
        <iidm:voltageLevel id="VL43" nominalV="115.0" topologyKind="BUS_BREAKER">
            <iidm:busBreakerTopology>
                <iidm:bus id="B43" name="1" v="114.80355517503153" angle="-21.393459906723127"/>
            </iidm:busBreakerTopology>
            <iidm:load id="B43-L" loadType="UNDEFINED" p0="39.0" q0="9.0" bus="B43" connectableBus="B43" p="39.0" q="9.0"/>
        </iidm:voltageLevel>
    </iidm:substation>
    <iidm:substation id="S44">
        <iidm:voltageLevel id="VL44" nominalV="115.0" topologyKind="BUS_BREAKER">
            <iidm:busBreakerTopology>
                <iidm:bus id="B44" name="1" v="115.86532282657203" angle="-22.390440969997194"/>
            </iidm:busBreakerTopology>
            <iidm:load id="B44-L" loadType="UNDEFINED" p0="195.0" q0="29.0" bus="B44" connectableBus="B44" p="195.0" q="29.0"/>
        </iidm:voltageLevel>
        <iidm:voltageLevel id="VL45" nominalV="230.0" topologyKind="BUS_BREAKER">
            <iidm:busBreakerTopology>
                <iidm:bus id="B45" name="1" v="234.9338584937039" angle="-19.769859632341173"/>
            </iidm:busBreakerTopology>
        </iidm:voltageLevel>
        <iidm:voltageLevel id="VL46" nominalV="345.0" topologyKind="BUS_BREAKER">
            <iidm:busBreakerTopology>
                <iidm:bus id="B46" name="1" v="356.6271465991803" angle="-16.695020146665577"/>
            </iidm:busBreakerTopology>
        </iidm:voltageLevel>
        <iidm:voltageLevel id="VL7044" nominalV="13.8" topologyKind="BUS_BREAKER">
            <iidm:busBreakerTopology>
                <iidm:bus id="B7044" name="1" v="14.0001" angle="-18.83606034561636"/>
            </iidm:busBreakerTopology>
            <iidm:generator id="B7044-G" energySource="OTHER" minP="-9999.0" maxP="9999.0" voltageRegulatorOn="true" targetP="37.0" targetV="14.0001" targetQ="0.0" bus="B7044" connectableBus="B7044" p="-37.0" q="-42.28090519082756">
                <iidm:minMaxReactiveLimits minQ="0.0" maxQ="42.0"/>
            </iidm:generator>
        </iidm:voltageLevel>
        <iidm:twoWindingsTransformer id="T45-44-1" r="0.0" x="2.645" g="0.0" b="0.0" ratedU1="231.84" ratedU2="115.0" voltageLevelId1="VL45" bus1="B45" connectableBus1="B45" voltageLevelId2="VL44" bus2="B44" connectableBus2="B44" p1="233.40301637193076" q1="34.82821812615038" p2="-233.40301637193082" q2="-23.981645839417812">
            <iidm:ratioTapChanger regulating="true" lowTapPosition="0" tapPosition="0" targetDeadband="0.0" loadTapChangingCapabilities="true" regulationMode="VOLTAGE" regulationValue="115.98899999999999">
                <iidm:terminalRef id="T45-44-1" side="TWO"/>
                <iidm:step r="0.0" x="0.0" g="0.0" b="0.0" rho="1.0"/>
            </iidm:ratioTapChanger>
        </iidm:twoWindingsTransformer>
        <iidm:twoWindingsTransformer id="T7044-44-1" r="0.0" x="24.0443725" g="0.0" b="0.0" ratedU1="12.9996" ratedU2="115.0" voltageLevelId1="VL7044" bus1="B7044" connectableBus1="B7044" voltageLevelId2="VL44" bus2="B44" connectableBus2="B44" p1="37.0" q1="42.28090519082756" p2="-37.00000000000001" q2="-37.332726978183096"/>
        <iidm:twoWindingsTransformer id="T45-46-1" r="0.0" x="24.995250000000002" g="0.0" b="0.0" ratedU1="230.0" ratedU2="345.0" voltageLevelId1="VL45" bus1="B45" connectableBus1="B45" voltageLevelId2="VL46" bus2="B46" connectableBus2="B46" p1="-269.70258974321587" q1="-52.34753219333147" p2="269.7025897432159" q2="67.53950599628126">
            <iidm:ratioTapChanger regulating="true" lowTapPosition="0" tapPosition="0" targetDeadband="0.0" loadTapChangingCapabilities="true" regulationMode="VOLTAGE" regulationValue="356.868">
                <iidm:terminalRef id="T45-46-1" side="TWO"/>
                <iidm:step r="0.0" x="0.0" g="0.0" b="0.0" rho="1.0"/>
            </iidm:ratioTapChanger>
        </iidm:twoWindingsTransformer>
    </iidm:substation>
    <iidm:substation id="S47">
        <iidm:voltageLevel id="VL47" nominalV="115.0" topologyKind="BUS_BREAKER">
            <iidm:busBreakerTopology>
                <iidm:bus id="B47" name="1" v="112.3537440327264" angle="-28.132374549466522"/>
            </iidm:busBreakerTopology>
            <iidm:load id="B47-L" loadType="UNDEFINED" p0="58.0" q0="11.8" bus="B47" connectableBus="B47" p="58.0" q="11.8"/>
        </iidm:voltageLevel>
    </iidm:substation>
    <iidm:substation id="S48">
        <iidm:voltageLevel id="VL48" nominalV="115.0" topologyKind="BUS_BREAKER">
            <iidm:busBreakerTopology>
                <iidm:bus id="B48" name="1" v="115.03809203952474" angle="-20.696969935651357"/>
            </iidm:busBreakerTopology>
            <iidm:load id="B48-L" loadType="UNDEFINED" p0="41.0" q0="19.0" bus="B48" connectableBus="B48" p="41.0" q="19.0"/>
        </iidm:voltageLevel>
    </iidm:substation>
    <iidm:substation id="S49">
        <iidm:voltageLevel id="VL49" nominalV="115.0" topologyKind="BUS_BREAKER">
            <iidm:busBreakerTopology>
                <iidm:bus id="B49" name="1" v="120.4197608336985" angle="-3.809031182892919"/>
            </iidm:busBreakerTopology>
            <iidm:load id="B49-L" loadType="UNDEFINED" p0="92.0" q0="26.0" bus="B49" connectableBus="B49" p="92.0" q="26.0"/>
        </iidm:voltageLevel>
        <iidm:voltageLevel id="VL7049" nominalV="13.8" topologyKind="BUS_BREAKER">
            <iidm:busBreakerTopology>
                <iidm:bus id="B7049" name="1" v="14.499659999999993" angle="0.0"/>
            </iidm:busBreakerTopology>
            <iidm:generator id="B7049-G" energySource="OTHER" minP="-9999.0" maxP="9999.0" voltageRegulatorOn="true" targetP="0.0" targetV="14.49966" targetQ="0.0" bus="B7049" connectableBus="B7049" p="-0.0" q="-49.86369238136505">
                <iidm:minMaxReactiveLimits minQ="-1.7976931348623157E308" maxQ="1.7976931348623157E308"/>
            </iidm:generator>
        </iidm:voltageLevel>
        <iidm:twoWindingsTransformer id="T7049-49-1" r="0.0" x="1.6399" g="0.0" b="0.0" ratedU1="13.8" ratedU2="115.0" voltageLevelId1="VL7049" bus1="B7049" connectableBus1="B7049" voltageLevelId2="VL49" bus2="B49" connectableBus2="B49" p1="589.4254905964225" q1="49.86369238136505" p2="-589.4254905964225" q2="-10.561291462063"/>
    </iidm:substation>
    <iidm:substation id="S51">
        <iidm:voltageLevel id="VL51" nominalV="115.0" topologyKind="BUS_BREAKER">
            <iidm:busBreakerTopology>
                <iidm:bus id="B51" name="1" v="117.36320336515483" angle="-10.996236598010617"/>
            </iidm:busBreakerTopology>
            <iidm:load id="B51-L" loadType="UNDEFINED" p0="-5.0" q0="5.0" bus="B51" connectableBus="B51" p="-5.0" q="5.0"/>
        </iidm:voltageLevel>
    </iidm:substation>
    <iidm:substation id="S52">
        <iidm:voltageLevel id="VL52" nominalV="115.0" topologyKind="BUS_BREAKER">
            <iidm:busBreakerTopology>
                <iidm:bus id="B52" name="1" v="114.3349379952259" angle="-15.634345568616752"/>
            </iidm:busBreakerTopology>
            <iidm:load id="B52-L" loadType="UNDEFINED" p0="61.0" q0="28.0" bus="B52" connectableBus="B52" p="61.0" q="28.0"/>
        </iidm:voltageLevel>
    </iidm:substation>
    <iidm:substation id="S53">
        <iidm:voltageLevel id="VL53" nominalV="115.0" topologyKind="BUS_BREAKER">
            <iidm:busBreakerTopology>
                <iidm:bus id="B53" name="1" v="114.2829691361775" angle="-22.240324297483774"/>
            </iidm:busBreakerTopology>
            <iidm:load id="B53-L" loadType="UNDEFINED" p0="69.0" q0="3.0" bus="B53" connectableBus="B53" p="69.0" q="3.0"/>
        </iidm:voltageLevel>
    </iidm:substation>
    <iidm:substation id="S54">
        <iidm:voltageLevel id="VL54" nominalV="115.0" topologyKind="BUS_BREAKER">
            <iidm:busBreakerTopology>
                <iidm:bus id="B54" name="1" v="115.37035385276334" angle="-20.93010894888677"/>
            </iidm:busBreakerTopology>
            <iidm:load id="B54-L" loadType="UNDEFINED" p0="10.0" q0="1.0" bus="B54" connectableBus="B54" p="10.0" q="1.0"/>
        </iidm:voltageLevel>
    </iidm:substation>
    <iidm:substation id="S55">
        <iidm:voltageLevel id="VL55" nominalV="115.0" topologyKind="BUS_BREAKER">
            <iidm:busBreakerTopology>
                <iidm:bus id="B55" name="1" v="116.53333834820374" angle="-16.64879203231225"/>
            </iidm:busBreakerTopology>
            <iidm:load id="B55-L" loadType="UNDEFINED" p0="22.0" q0="10.0" bus="B55" connectableBus="B55" p="22.0" q="10.0"/>
        </iidm:voltageLevel>
        <iidm:voltageLevel id="VL7055" nominalV="13.8" topologyKind="BUS_BREAKER">
            <iidm:busBreakerTopology>
                <iidm:bus id="B7055" name="1" v="13.754460000000002" angle="-11.928468288759111"/>
            </iidm:busBreakerTopology>
            <iidm:generator id="B7055-G" energySource="OTHER" minP="-9999.0" maxP="9999.0" voltageRegulatorOn="true" targetP="45.0" targetV="13.754460000000002" targetQ="0.0" bus="B7055" connectableBus="B7055" p="-45.0" q="-25.99517987557103">
                <iidm:minMaxReactiveLimits minQ="0.0" maxQ="25.0"/>
            </iidm:generator>
        </iidm:voltageLevel>
        <iidm:twoWindingsTransformer id="T7055-55-1" r="0.0" x="25.9302575" g="0.0" b="0.0" ratedU1="12.9996" ratedU2="115.0" voltageLevelId1="VL7055" bus1="B7055" connectableBus1="B7055" voltageLevelId2="VL55" bus2="B55" connectableBus2="B55" p1="44.99999999999999" q1="25.99517987557103" p2="-44.999999999999986" q2="-21.265101657317512"/>
    </iidm:substation>
    <iidm:substation id="S57">
        <iidm:voltageLevel id="VL57" nominalV="115.0" topologyKind="BUS_BREAKER">
            <iidm:busBreakerTopology>
                <iidm:bus id="B57" name="1" v="118.84773895830452" angle="-13.399621784960665"/>
            </iidm:busBreakerTopology>
            <iidm:load id="B57-L" loadType="UNDEFINED" p0="98.0" q0="20.0" bus="B57" connectableBus="B57" p="98.0" q="20.0"/>
        </iidm:voltageLevel>
        <iidm:voltageLevel id="VL7057" nominalV="13.8" topologyKind="BUS_BREAKER">
            <iidm:busBreakerTopology>
                <iidm:bus id="B7057" name="1" v="14.092560000000002" angle="-8.844562258135971"/>
            </iidm:busBreakerTopology>
            <iidm:generator id="B7057-G" energySource="OTHER" minP="-9999.0" maxP="9999.0" voltageRegulatorOn="true" targetP="165.0" targetV="14.092560000000002" targetQ="0.0" bus="B7057" connectableBus="B7057" p="-165.0" q="-89.97024393815424">
                <iidm:minMaxReactiveLimits minQ="-90.0" maxQ="90.0"/>
            </iidm:generator>
        </iidm:voltageLevel>
        <iidm:twoWindingsTransformer id="T7057-57-1" r="0.0" x="7.071407499999999" g="0.0" b="0.0" ratedU1="13.11" ratedU2="115.0" voltageLevelId1="VL7057" bus1="B7057" connectableBus1="B7057" voltageLevelId2="VL57" bus2="B57" connectableBus2="B57" p1="164.99999999999994" q1="89.97024393815424" p2="-164.99999999999994" q2="-73.62647891725594"/>
    </iidm:substation>
    <iidm:substation id="S58">
        <iidm:voltageLevel id="VL58" nominalV="115.0" topologyKind="BUS_BREAKER">
            <iidm:busBreakerTopology>
                <iidm:bus id="B58" name="1" v="113.98872949164736" angle="-11.800383445594996"/>
            </iidm:busBreakerTopology>
            <iidm:load id="B58-L" loadType="UNDEFINED" p0="14.0" q0="1.0" bus="B58" connectableBus="B58" p="14.0" q="1.0"/>
        </iidm:voltageLevel>
    </iidm:substation>
    <iidm:substation id="S59">
        <iidm:voltageLevel id="VL59" nominalV="115.0" topologyKind="BUS_BREAKER">
            <iidm:busBreakerTopology>
                <iidm:bus id="B59" name="1" v="112.51520291204436" angle="-11.222263649814924"/>
            </iidm:busBreakerTopology>
            <iidm:load id="B59-L" loadType="UNDEFINED" p0="218.0" q0="106.0" bus="B59" connectableBus="B59" p="218.0" q="106.0"/>
        </iidm:voltageLevel>
    </iidm:substation>
    <iidm:substation id="S60">
        <iidm:voltageLevel id="VL60" nominalV="230.0" topologyKind="BUS_BREAKER">
            <iidm:busBreakerTopology>
                <iidm:bus id="B60" name="1" v="235.93568810742275" angle="-15.05244545865055"/>
            </iidm:busBreakerTopology>
        </iidm:voltageLevel>
    </iidm:substation>
    <iidm:substation id="S61">
        <iidm:voltageLevel id="VL61" nominalV="115.0" topologyKind="BUS_BREAKER">
            <iidm:busBreakerTopology>
                <iidm:bus id="B61" name="1" v="113.89750957753157" angle="-9.461827040338145"/>
            </iidm:busBreakerTopology>
            <iidm:load id="B61-L" loadType="UNDEFINED" p0="227.0" q0="110.0" bus="B61" connectableBus="B61" p="227.0" q="110.0"/>
        </iidm:voltageLevel>
        <iidm:voltageLevel id="VL62" nominalV="230.0" topologyKind="BUS_BREAKER">
            <iidm:busBreakerTopology>
                <iidm:bus id="B62" name="1" v="233.81699563668906" angle="-7.3339896473379245"/>
            </iidm:busBreakerTopology>
        </iidm:voltageLevel>
        <iidm:voltageLevel id="VL7061" nominalV="13.8" topologyKind="BUS_BREAKER">
            <iidm:busBreakerTopology>
                <iidm:bus id="B7061" name="1" v="14.0001" angle="-4.025030551314512"/>
                <iidm:bus id="B7062" name="1" v="13.82346" angle="-0.44567638299408435"/>
            </iidm:busBreakerTopology>
            <iidm:generator id="B7061-G" energySource="OTHER" minP="-9999.0" maxP="9999.0" voltageRegulatorOn="true" targetP="400.0" targetV="14.0001" targetQ="0.0" bus="B7061" connectableBus="B7061" p="-400.0" q="-121.6650800498426">
                <iidm:minMaxReactiveLimits minQ="-150.0" maxQ="150.0"/>
            </iidm:generator>
            <iidm:generator id="B7062-G" energySource="OTHER" minP="-9999.0" maxP="9999.0" voltageRegulatorOn="true" targetP="400.0" targetV="13.82346" targetQ="0.0" bus="B7062" connectableBus="B7062" p="-400.0" q="-148.16808541916618">
                <iidm:minMaxReactiveLimits minQ="0.0" maxQ="150.0"/>
            </iidm:generator>
        </iidm:voltageLevel>
        <iidm:twoWindingsTransformer id="T62-61-1" r="0.0" x="7.80275" g="0.0" b="0.0" ratedU1="224.25" ratedU2="115.0" voltageLevelId1="VL62" bus1="B62" connectableBus1="B62" voltageLevelId2="VL61" bus2="B61" connectableBus2="B61" p1="64.98662291125208" q1="93.54266508484976" p2="-64.98662291125208" q2="-86.50187121462434">
            <iidm:ratioTapChanger regulating="true" lowTapPosition="0" tapPosition="0" targetDeadband="0.0" loadTapChangingCapabilities="true" regulationMode="VOLTAGE" regulationValue="113.91900000000001">
                <iidm:terminalRef id="T62-61-1" side="TWO"/>
                <iidm:step r="0.0" x="0.0" g="0.0" b="0.0" rho="1.0"/>
            </iidm:ratioTapChanger>
        </iidm:twoWindingsTransformer>
        <iidm:twoWindingsTransformer id="T7061-61-1" r="0.0" x="3.1475500000000003" g="0.0" b="0.0" ratedU1="13.8" ratedU2="115.0" voltageLevelId1="VL7061" bus1="B7061" connectableBus1="B7061" voltageLevelId2="VL61" bus2="B61" connectableBus2="B61" p1="399.99999999999994" q1="121.6650800498426" p2="-399.99999999999994" q2="-81.24285414853483"/>
        <iidm:twoWindingsTransformer id="T7062-62-1" r="0.0" x="17.00206" g="0.0" b="0.0" ratedU1="13.11" ratedU2="230.0" voltageLevelId1="VL7061" bus1="B7062" connectableBus1="B7062" voltageLevelId2="VL62" bus2="B62" connectableBus2="B62" p1="400.0" q1="148.16808541916618" p2="-399.99999999999994" q2="-95.5689238692192"/>
    </iidm:substation>
    <iidm:substation id="S63">
        <iidm:voltageLevel id="VL63" nominalV="115.0" topologyKind="BUS_BREAKER">
            <iidm:busBreakerTopology>
                <iidm:bus id="B63" name="1" v="110.20450000000001" angle="-23.67907313669217"/>
            </iidm:busBreakerTopology>
            <iidm:generator id="B63-G" energySource="OTHER" minP="-9999.0" maxP="9999.0" voltageRegulatorOn="true" targetP="0.0" targetV="110.20450000000001" targetQ="0.0" bus="B63" connectableBus="B63" p="-0.0" q="-24.71928350162913">
                <iidm:minMaxReactiveLimits minQ="-25.0" maxQ="25.0"/>
            </iidm:generator>
            <iidm:load id="B63-L" loadType="UNDEFINED" p0="70.0" q0="30.0" bus="B63" connectableBus="B63" p="70.0" q="30.0"/>
        </iidm:voltageLevel>
        <iidm:voltageLevel id="VL64" nominalV="230.0" topologyKind="BUS_BREAKER">
            <iidm:busBreakerTopology>
                <iidm:bus id="B64" name="1" v="218.12333690172792" angle="-19.07227024653017"/>
            </iidm:busBreakerTopology>
        </iidm:voltageLevel>
        <iidm:twoWindingsTransformer id="T63-64-1" r="0.0" x="20.102" g="0.0" b="0.0" ratedU1="116.95499999999998" ratedU2="230.0" voltageLevelId1="VL63" bus1="B63" connectableBus1="B63" voltageLevelId2="VL64" bus2="B64" connectableBus2="B64" p1="-188.87748718889492" q1="-7.481929938978372" p2="188.8774871888949" q2="22.773914878083428">
            <iidm:ratioTapChanger regulating="true" lowTapPosition="0" tapPosition="0" targetDeadband="0.0" loadTapChangingCapabilities="true" regulationMode="VOLTAGE" regulationValue="218.04">
                <iidm:terminalRef id="T63-64-1" side="TWO"/>
                <iidm:step r="0.0" x="0.0" g="0.0" b="0.0" rho="1.0"/>
            </iidm:ratioTapChanger>
        </iidm:twoWindingsTransformer>
    </iidm:substation>
    <iidm:substation id="S69">
        <iidm:voltageLevel id="VL69" nominalV="115.0" topologyKind="BUS_BREAKER">
            <iidm:busBreakerTopology>
                <iidm:bus id="B69" name="1" v="110.72665631628415" angle="-30.652225325833484"/>
            </iidm:busBreakerTopology>
        </iidm:voltageLevel>
        <iidm:voltageLevel id="VL201" nominalV="66.0" topologyKind="BUS_BREAKER">
            <iidm:busBreakerTopology>
                <iidm:bus id="B201" name="1" v="63.95084404990663" angle="-32.48149525279204"/>
            </iidm:busBreakerTopology>
            <iidm:load id="B201-L" loadType="UNDEFINED" p0="41.0" q0="14.0" bus="B201" connectableBus="B201" p="41.0" q="14.0"/>
        </iidm:voltageLevel>
        <iidm:twoWindingsTransformer id="T201-69-2" r="0.0" x="12.9605" g="0.0" b="0.0" ratedU1="67.98" ratedU2="115.0" voltageLevelId1="VL201" bus1="B201" connectableBus1="B201" voltageLevelId2="VL69" bus2="B69" connectableBus2="B69" p1="-29.50358353011045" q1="-20.75321636984051" p2="29.50358353011045" q2="22.1940892949425">
            <iidm:ratioTapChanger regulating="true" lowTapPosition="0" tapPosition="0" targetDeadband="0.0" loadTapChangingCapabilities="true" regulationMode="VOLTAGE" regulationValue="110.74499999999999">
                <iidm:terminalRef id="T201-69-2" side="TWO"/>
                <iidm:step r="0.0" x="0.0" g="0.0" b="0.0" rho="1.0"/>
            </iidm:ratioTapChanger>
        </iidm:twoWindingsTransformer>
    </iidm:substation>
    <iidm:substation id="S70">
        <iidm:voltageLevel id="VL70" nominalV="115.0" topologyKind="BUS_BREAKER">
            <iidm:busBreakerTopology>
                <iidm:bus id="B70" name="1" v="109.38717336902192" angle="-40.15509991715222"/>
            </iidm:busBreakerTopology>
            <iidm:load id="B70-L" loadType="UNDEFINED" p0="56.0" q0="20.0" bus="B70" connectableBus="B70" p="56.0" q="20.0"/>
        </iidm:voltageLevel>
    </iidm:substation>
    <iidm:substation id="S71">
        <iidm:voltageLevel id="VL71" nominalV="115.0" topologyKind="BUS_BREAKER">
            <iidm:busBreakerTopology>
                <iidm:bus id="B71" name="1" v="112.61624559286888" angle="-34.87459670351459"/>
            </iidm:busBreakerTopology>
            <iidm:load id="B71-L" loadType="UNDEFINED" p0="116.0" q0="38.0" bus="B71" connectableBus="B71" p="116.0" q="38.0"/>
        </iidm:voltageLevel>
        <iidm:voltageLevel id="VL7071" nominalV="13.8" topologyKind="BUS_BREAKER">
            <iidm:busBreakerTopology>
                <iidm:bus id="B7071" name="1" v="13.652339999999999" angle="-30.34474312119516"/>
            </iidm:busBreakerTopology>
            <iidm:generator id="B7071-G" energySource="OTHER" minP="-9999.0" maxP="9999.0" voltageRegulatorOn="true" targetP="116.0" targetV="13.65234" targetQ="0.0" bus="B7071" connectableBus="B7071" p="-115.99999999999999" q="-87.10925966998214">
                <iidm:minMaxReactiveLimits minQ="0.0" maxQ="87.0"/>
            </iidm:generator>
        </iidm:voltageLevel>
        <iidm:twoWindingsTransformer id="T7071-71-1" r="0.0" x="9.119959999999999" g="0.0" b="0.0" ratedU1="13.199700000000002" ratedU2="115.0" voltageLevelId1="VL7071" bus1="B7071" connectableBus1="B7071" voltageLevelId2="VL71" bus2="B71" connectableBus2="B71" p1="116.00000000000009" q1="87.10925966998214" p2="-116.00000000000009" q2="-73.54363010522721"/>
    </iidm:substation>
    <iidm:substation id="S72">
        <iidm:voltageLevel id="VL72" nominalV="115.0" topologyKind="BUS_BREAKER">
            <iidm:busBreakerTopology>
                <iidm:bus id="B72" name="1" v="111.49500155886521" angle="-32.47179757334448"/>
            </iidm:busBreakerTopology>
            <iidm:load id="B72-L" loadType="UNDEFINED" p0="57.0" q0="19.0" bus="B72" connectableBus="B72" p="57.0" q="19.0"/>
        </iidm:voltageLevel>
    </iidm:substation>
    <iidm:substation id="S73">
        <iidm:voltageLevel id="VL73" nominalV="115.0" topologyKind="BUS_BREAKER">
            <iidm:busBreakerTopology>
                <iidm:bus id="B73" name="1" v="112.39202520166889" angle="-30.761557408730788"/>
            </iidm:busBreakerTopology>
            <iidm:load id="B73-L" loadType="UNDEFINED" p0="224.0" q0="71.0" bus="B73" connectableBus="B73" p="224.0" q="71.0"/>
        </iidm:voltageLevel>
        <iidm:voltageLevel id="VL74" nominalV="230.0" topologyKind="BUS_BREAKER">
            <iidm:busBreakerTopology>
                <iidm:bus id="B74" name="1" v="229.1376594748602" angle="-26.999012146604148"/>
            </iidm:busBreakerTopology>
        </iidm:voltageLevel>
        <iidm:twoWindingsTransformer id="T73-74-1" r="0.0" x="12.9076" g="0.0" b="0.0" ratedU1="115.0" ratedU2="230.0" voltageLevelId1="VL73" bus1="B73" connectableBus1="B73" voltageLevelId2="VL74" bus2="B74" connectableBus2="B74" p1="-261.85651358209446" q1="-67.21650060562511" p2="261.8565135820945" q2="85.8869170620041">
            <iidm:ratioTapChanger regulating="true" lowTapPosition="0" tapPosition="0" targetDeadband="0.0" loadTapChangingCapabilities="true" regulationMode="VOLTAGE" regulationValue="229.172">
                <iidm:terminalRef id="T73-74-1" side="TWO"/>
                <iidm:step r="0.0" x="0.0" g="0.0" b="0.0" rho="1.0"/>
            </iidm:ratioTapChanger>
        </iidm:twoWindingsTransformer>
    </iidm:substation>
    <iidm:substation id="S76">
        <iidm:voltageLevel id="VL76" nominalV="115.0" topologyKind="BUS_BREAKER">
            <iidm:busBreakerTopology>
                <iidm:bus id="B76" name="1" v="110.768" angle="-31.53674148973338"/>
            </iidm:busBreakerTopology>
            <iidm:generator id="B76-G" energySource="OTHER" minP="-9999.0" maxP="9999.0" voltageRegulatorOn="true" targetP="0.0" targetV="110.768" targetQ="0.0" bus="B76" connectableBus="B76" p="-0.0" q="-35.50959605853079">
                <iidm:minMaxReactiveLimits minQ="12.0" maxQ="35.0"/>
            </iidm:generator>
            <iidm:load id="B76-L" loadType="UNDEFINED" p0="208.0" q0="107.0" bus="B76" connectableBus="B76" p="208.0" q="107.0"/>
        </iidm:voltageLevel>
    </iidm:substation>
    <iidm:substation id="S77">
        <iidm:voltageLevel id="VL77" nominalV="115.0" topologyKind="BUS_BREAKER">
            <iidm:busBreakerTopology>
                <iidm:bus id="B77" name="1" v="113.12641503952612" angle="-29.93475560913901"/>
            </iidm:busBreakerTopology>
            <iidm:load id="B77-L" loadType="UNDEFINED" p0="74.0" q0="28.0" bus="B77" connectableBus="B77" p="74.0" q="28.0"/>
        </iidm:voltageLevel>
    </iidm:substation>
    <iidm:substation id="S78">
        <iidm:voltageLevel id="VL78" nominalV="115.0" topologyKind="BUS_BREAKER">
            <iidm:busBreakerTopology>
                <iidm:bus id="B78" name="1" v="113.84152333978653" angle="-29.044090173726854"/>
            </iidm:busBreakerTopology>
        </iidm:voltageLevel>
    </iidm:substation>
    <iidm:substation id="S79">
        <iidm:voltageLevel id="VL79" nominalV="115.0" topologyKind="BUS_BREAKER">
            <iidm:busBreakerTopology>
                <iidm:bus id="B79" name="1" v="112.91614581339432" angle="-29.967065577086245"/>
            </iidm:busBreakerTopology>
            <iidm:load id="B79-L" loadType="UNDEFINED" p0="48.0" q0="14.0" bus="B79" connectableBus="B79" p="48.0" q="14.0"/>
        </iidm:voltageLevel>
    </iidm:substation>
    <iidm:substation id="S80">
        <iidm:voltageLevel id="VL80" nominalV="115.0" topologyKind="BUS_BREAKER">
            <iidm:busBreakerTopology>
                <iidm:bus id="B80" name="1" v="113.52147947509708" angle="-29.962864846159146"/>
            </iidm:busBreakerTopology>
            <iidm:load id="B80-L" loadType="UNDEFINED" p0="28.0" q0="7.0" bus="B80" connectableBus="B80" p="28.0" q="7.0"/>
        </iidm:voltageLevel>
    </iidm:substation>
    <iidm:substation id="S81">
        <iidm:voltageLevel id="VL81" nominalV="345.0" topologyKind="BUS_BREAKER">
            <iidm:busBreakerTopology>
                <iidm:bus id="B81" name="1" v="356.59421054313555" angle="-23.86160317997251"/>
            </iidm:busBreakerTopology>
        </iidm:voltageLevel>
        <iidm:voltageLevel id="VL88" nominalV="230.0" topologyKind="BUS_BREAKER">
            <iidm:busBreakerTopology>
                <iidm:bus id="B88" name="1" v="233.422854234973" angle="-25.944992786995215"/>
            </iidm:busBreakerTopology>
        </iidm:voltageLevel>
        <iidm:twoWindingsTransformer id="T81-88-1" r="0.0" x="10.58" g="0.0" b="0.0" ratedU1="345.0" ratedU2="230.0" voltageLevelId1="VL81" bus1="B81" connectableBus1="B81" voltageLevelId2="VL88" bus2="B88" connectableBus2="B88" p1="190.67461993687766" q1="100.23550477308841" p2="-190.67461993687766" q2="-91.5484067866178">
...